REMARK  Name = C:\Users\hp\OneDrive\Bureau\colaboration\RAHIMI\doc\co.pdb
REMARK  8 active torsions:
REMARK  status: ('A' for Active; 'I' for Inactive)
REMARK    1  A    between atoms: PA_1  and  O5'_4
REMARK    2  A    between atoms: PA_1  and  O3A_20
REMARK    3  A    between atoms: PB_2  and  O3A_20
REMARK    4  A    between atoms: C5'_3  and  O5'_4
REMARK    5  A    between atoms: C5'_3  and  C4'_5
REMARK    6  A    between atoms: C3'_7  and  O3'_8
REMARK    7  A    between atoms: C2'_9  and  O2'_10
REMARK    8  A    between atoms: C1'_11  and  N9_28
REMARK                            x       y       z     vdW  Elec       q    Type
REMARK                         _______ _______ _______ _____ _____    ______ ____
ROOT
ATOM      5  C4' GDP A 201      13.776  -8.601 -16.173  0.00  0.00    +0.000 C 
ATOM      6  O4' GDP A 201      13.819  -8.495 -17.597  0.00  0.00    +0.000 OA
ATOM      7  C3' GDP A 201      14.667  -9.761 -15.771  0.00  0.00    +0.000 C 
ATOM      9  C2' GDP A 201      15.454 -10.105 -17.022  0.00  0.00    +0.000 C 
ATOM     11  C1' GDP A 201      14.576  -9.578 -18.146  0.00  0.00    +0.000 C 
ENDROOT
BRANCH  11  28
ATOM     12  N1  GDP A 201      15.430 -10.288 -23.207  0.00  0.00    +0.000 N 
ATOM     15  C2  GDP A 201      14.599 -10.938 -22.373  0.00  0.00    +0.000 A 
ATOM     16  N2  GDP A 201      13.829 -11.947 -22.855  0.00  0.00    +0.000 N 
ATOM     19  N3  GDP A 201      14.499 -10.623 -21.060  0.00  0.00    +0.000 NA
ATOM     22  C4  GDP A 201      15.242  -9.628 -20.526  0.00  0.00    +0.000 A 
ATOM     23  C5  GDP A 201      16.166  -8.881 -21.383  0.00  0.00    +0.000 A 
ATOM     24  C6  GDP A 201      16.219  -9.285 -22.805  0.00  0.00    +0.000 A 
ATOM     25  O6  GDP A 201      16.977  -8.703 -23.606  0.00  0.00    +0.000 OA
ATOM     26  N7  GDP A 201      16.763  -7.964 -20.597  0.00  0.00    +0.000 NA
ATOM     27  C8  GDP A 201      16.262  -8.107 -19.342  0.00  0.00    +0.000 A 
ATOM     28  N9  GDP A 201      15.362  -9.110 -19.309  0.00  0.00    +0.000 N 
ATOM     29  HN1 GDP A 201      15.462 -10.579 -24.206  0.00  0.00    +0.000 HD
ATOM     30 HN21 GDP A 201      13.201 -12.442 -22.238  0.00  0.00    +0.000 HD
ATOM     31 HN22 GDP A 201      13.885 -12.203 -23.830  0.00  0.00    +0.000 HD
ENDBRANCH  11  28
BRANCH   7   8
ATOM      8  O3' GDP A 201      13.834 -10.841 -15.345  0.00  0.00    +0.000 OA
ATOM     33 HO3' GDP A 201      14.386 -11.587 -15.074  0.00  0.00    +0.000 HD
ENDBRANCH   7   8
BRANCH   9  10
ATOM     10  O2' GDP A 201      15.696 -11.509 -17.146  0.00  0.00    +0.000 OA
ATOM     32 HO2' GDP A 201      16.205 -11.817 -16.383  0.00  0.00    +0.000 HD
ENDBRANCH   9  10
BRANCH   5   3
ATOM      3  C5' GDP A 201      14.258  -7.300 -15.564  0.00  0.00    +0.000 C 
BRANCH   3   4
ATOM      4  O5' GDP A 201      15.498  -6.938 -16.167  0.00  0.00    +0.000 OA
BRANCH   4   1
ATOM      1  PA  GDP A 201      16.456  -5.859 -15.462  0.00  0.00    +0.000 P 
ATOM     13  O1A GDP A 201      16.458  -6.018 -13.962  0.00  0.00    +0.000 OA
ATOM     17  O2A GDP A 201      17.854  -5.964 -16.014  0.00  0.00    +0.000 OA
BRANCH   1  20
ATOM     20  O3A GDP A 201      15.776  -4.470 -15.911  0.00  0.00    +0.000 OA
BRANCH  20   2
ATOM      2  PB  GDP A 201      15.934  -3.118 -15.054  0.00  0.00    +0.000 P 
ATOM     14  O1B GDP A 201      14.915  -3.098 -13.943  0.00  0.00    +0.000 OA
ATOM     18  O2B GDP A 201      15.703  -1.934 -15.956  0.00  0.00    +0.000 OA
ATOM     21  O3B GDP A 201      17.319  -3.045 -14.471  0.00  0.00    +0.000 OA
ENDBRANCH  20   2
ENDBRANCH   1  20
ENDBRANCH   4   1
ENDBRANCH   3   4
ENDBRANCH   5   3
TORSDOF 8
